Version 4
SHEET 1 980 680
WIRE 112 -16 -16 -16
WIRE 448 -16 416 -16
WIRE -16 32 -16 -16
WIRE 160 32 -16 32
WIRE 272 32 256 32
WIRE 704 32 592 32
WIRE -16 64 -16 32
WIRE -16 128 -112 128
WIRE 752 144 752 112
WIRE 848 144 752 144
WIRE 752 160 752 144
WIRE 848 176 848 144
WIRE 704 240 544 240
WIRE 160 288 160 32
WIRE 400 288 160 288
FLAG 752 256 0
FLAG 256 112 0
FLAG 416 80 0
FLAG 592 112 0
FLAG 544 336 0
FLAG 848 256 0
SYMBOL PowerMOS\\IRF540n 736 208 R0
SYMATTR InstName U1
SYMBOL PowerMOS\\IRF9540n 736 64 R0
SYMATTR InstName U2
SYMBOL Fontes\\+12V 752 16 R0
SYMATTR InstName U3
SYMBOL Fontes\\Sinal -16 96 R0
SYMATTR SpiceLine V={2Vef}
SYMATTR SpiceLine2 f={0.5kHz}
SYMATTR InstName U4
SYMBOL npn 480 240 R0
SYMATTR InstName Q1
SYMBOL npn 352 -16 R0
SYMATTR InstName Q2
SYMBOL pnp 528 32 M180
SYMATTR InstName Q3
SYMBOL pnp 192 32 M180
SYMATTR InstName Q4
SYMBOL res 528 144 R0
SYMATTR InstName R1
SYMATTR Value 10k
SYMBOL res 496 272 R90
WINDOW 0 0 56 VBottom 2
WINDOW 3 32 56 VTop 2
SYMATTR InstName R2
SYMATTR Value 10k
SYMBOL res 544 -32 R90
WINDOW 0 0 56 VBottom 2
WINDOW 3 32 56 VTop 2
SYMATTR InstName R3
SYMATTR Value 10k
SYMBOL res 368 16 R90
WINDOW 0 0 56 VBottom 2
WINDOW 3 32 56 VTop 2
SYMATTR InstName R4
SYMATTR Value 10k
SYMBOL res 208 -32 R90
WINDOW 0 0 56 VBottom 2
WINDOW 3 32 56 VTop 2
SYMATTR InstName R5
SYMATTR Value 10k
SYMBOL res 576 16 R0
SYMATTR InstName R7
SYMATTR Value 1k
SYMBOL res 240 16 R0
SYMATTR InstName R8
SYMATTR Value 10k
SYMBOL res 400 -112 R0
SYMATTR InstName R9
SYMATTR Value 10k
SYMBOL Fontes\\+12V 592 -64 R0
SYMATTR InstName U6
SYMBOL Fontes\\+12V 416 -96 R0
SYMATTR InstName U7
SYMBOL Fontes\\+5V 256 -64 R0
SYMATTR InstName U9
SYMBOL Fontes\\+6V -112 128 R0
SYMATTR SpiceModel +3V
SYMATTR InstName U5
SYMBOL Fontes\\+12V 544 160 R0
SYMATTR InstName U8
SYMBOL res 832 160 R0
SYMATTR InstName R10
SYMATTR Value 10R
TEXT -50 232 Left 2 !.tran 3ms
